Circuit: * H:\Documents\Electeng_311_LTSpice_andVisio\hbridge_4inputs.asc

Direct Newton iteration for .op point succeeded.
Changing Tseed to 1e-010
Changing Tseed to 1e-012
Heightened Def Con from 1.45514e-011 to 1.1e-009
Heightened Def Con from 0.01 to 0.01
Heightened Def Con from 0.026 to 0.026
Heightened Def Con from 0.039532 to 0.039532
Heightened Def Con from 0.04 to 0.04
Heightened Def Con from 0.04 to 0.04
Heightened Def Con from 0.16 to 0.16
Heightened Def Con from 0.179998 to 0.179998
Heightened Def Con from 0.259998 to 0.259998
Heightened Def Con from 0.269998 to 0.269998
Heightened Def Con from 0.29 to 0.29

Date: Fri Sep 21 11:54:25 2018
Total elapsed time: 2.080 seconds.

tnom = 27
temp = 27
method = modified trap
totiter = 114659
traniter = 114619
tranpoints = 32214
accept = 23932
rejected = 8291
matrix size = 82
fillins = 72
solver = Normal
Matrix Compiler1: 9.87 KB object code size  2.9/1.6/[0.6]
Matrix Compiler2: 8.52 KB object code size  0.9/1.5/[0.4]

